LTspice 24.0.9 for Windows
Circuit: * C:\Users\giuli\Desktop\Main\LTSpice\1 Giug_Amp_101\Test.asc
Start Time: Thu Oct  3 12:03:20 2024
Warning: Multiple definitions of model "2scr375p" Type: BJT
Warning: Multiple definitions of model "bc857b" Type: BJT
Warning: Multiple definitions of model "bc847c" Type: BJT
Warning: Multiple definitions of model "bc847b" Type: BJT
solver = Normal
Maximum thread count: 16
tnom = 27
temp = 27
method = modified trap
Direct Newton iteration for .op point succeeded.
Total elapsed time: 0.190 seconds.

